Version 4.1
SHEET 1 1692 888
WIRE 752 -320 480 -320
WIRE 480 -272 480 -320
WIRE 480 -160 480 -192
WIRE 752 -48 752 -320
WIRE 752 -48 480 -48
WIRE 1024 -48 752 -48
WIRE 480 144 480 -48
WIRE 1024 144 1024 -48
WIRE 432 224 240 224
WIRE 1264 224 1072 224
WIRE 240 304 240 224
WIRE 480 304 480 240
WIRE 1024 304 1024 240
WIRE 1264 352 1264 304
WIRE 480 448 480 384
WIRE 1024 448 1024 384
WIRE 432 528 240 528
WIRE 1264 528 1072 528
WIRE 1264 592 1264 528
WIRE 240 624 240 528
WIRE 480 640 480 544
WIRE 752 640 480 640
WIRE 1024 640 1024 544
WIRE 1024 640 752 640
WIRE 752 688 752 640
WIRE 1264 720 1264 672
WIRE 752 848 752 768
FLAG 480 -160 0
FLAG 752 848 0
FLAG 240 304 0
FLAG 240 624 0
FLAG 1264 352 0
FLAG 1264 720 0
SYMBOL pmos 432 144 R0
SYMATTR InstName Qa
SYMATTR Value Si4425DY
SYMBOL pmos 1072 144 M0
SYMATTR InstName Qx
SYMATTR Value Si4425DY
SYMBOL voltage 480 -288 R0
WINDOW 123 0 0 Left 0
WINDOW 39 0 0 Left 0
SYMATTR InstName V2
SYMATTR Value 12
SYMBOL nmos 432 448 R0
SYMATTR InstName Qy
SYMATTR Value Si4410DY
SYMBOL nmos 1072 448 M0
SYMATTR InstName Qb
SYMATTR Value Si4410DY
SYMBOL res 736 672 R0
SYMATTR InstName R1
SYMATTR Value 0.25
SYMBOL voltage 1264 208 R0
WINDOW 123 0 0 Left 0
WINDOW 39 0 0 Left 0
SYMATTR InstName V1
SYMATTR Value 12
SYMBOL voltage 1264 576 R0
WINDOW 123 0 0 Left 0
WINDOW 39 0 0 Left 0
SYMATTR InstName V3
SYMATTR Value PULSE(0 5 0 100n 100n 50u 100u)
SYMBOL res 464 288 R0
SYMATTR InstName R2
SYMATTR Value 1
SYMBOL res 1008 288 R0
SYMATTR InstName R3
SYMATTR Value 1
TEXT 216 872 Left 2 !.tran 400u
