* C:\Users\arnav\Documents\github\quartz\content\University\ECE 3399\Project\Simulation\h_bridge.asc
* Generated by LTspice 26.0.0 for Windows.
M§Qa N001 0 N003 N003 Si4425DY
M§Qx N001 N002 N004 N004 Si4425DY
V2 N001 0 12
M§Qy N005 0 N008 N008 Si4410DY
M§Qb N006 N007 N008 N008 Si4410DY
R1 N008 0 0.25
V1 N002 0 12
V3 N007 0 PULSE(0 5 0 100n 100n 50u 100u)
R2 N003 N005 1
R3 N004 N006 1
.model NMOS NMOS
.model PMOS PMOS
.lib C:\Users\arnav\AppData\Local\LTspice\lib\cmp\standard.mos
.tran 400u
.backanno
.end
