Version 4.1
SHEET 1 880 680
WIRE 0 64 -48 64
WIRE 240 64 80 64
WIRE -48 80 -48 64
WIRE 240 224 240 64
WIRE 240 336 240 304
WIRE 432 336 240 336
WIRE 544 336 496 336
WIRE 240 352 240 336
WIRE 544 400 544 336
WIRE 192 432 -224 432
WIRE 240 512 240 448
WIRE -224 528 -224 512
FLAG -48 80 0
FLAG -224 528 0
FLAG 240 512 0
FLAG 544 400 0
SYMBOL voltage 96 64 R90
WINDOW 0 -32 56 VBottom 2
WINDOW 3 32 56 VTop 2
WINDOW 123 0 0 Left 0
WINDOW 39 0 0 Left 0
SYMATTR InstName V1
SYMATTR Value 12
SYMBOL voltage -224 416 R0
WINDOW 123 0 0 Left 0
WINDOW 39 0 0 Left 0
SYMATTR InstName V2
SYMATTR Value PULSE(0 5 0 10n 10n 10u 20u)
SYMBOL nmos 192 352 R0
SYMATTR InstName M1
SYMATTR Value 2N7002
SYMBOL res 224 208 R0
SYMATTR InstName R1
SYMATTR Value {R_pull}
SYMBOL cap 496 320 R90
WINDOW 0 0 32 VBottom 2
WINDOW 3 32 32 VTop 2
SYMATTR InstName C1
SYMATTR Value 1.5n
TEXT -264 -128 Left 2 !.step param R_pull 1k 2k 100
TEXT -264 -96 Left 2 !.tran 50u
